/*--------------------------------*- C++ -*----------------------------------*\
| =========                 |                                                 |
| \\      /  F ield         | OpenFOAM: The Open Source CFD Toolbox           |
|  \\    /   O peration     | Version:  v1912                                 |
|   \\  /    A nd           | Website:  www.openfoam.com                      |
|    \\/     M anipulation  |                                                 |
\*---------------------------------------------------------------------------*/
FoamFile
{
    version     2.0;
    format      ascii;
    class       dictionary;
    location    "system";
    object      controlDict;
}
// * * * * * * * * * * * * * * * * * * * * * * * * * * * * * * * * * * * * * //


application     DPMDyMFoam;

startFrom       latestTime;

startTime       0;

stopAt          endTime;

endTime         10;

deltaT          1e-5;

writeControl    adjustableRunTime;

writeInterval   0.01;

purgeWrite      0;

writeFormat     ascii;

writePrecision  9;

writeCompression off;

timeFormat      general;

timePrecision   9;

runTimeModifiable yes;

adjustTimeStep  no;

maxCo           1.0;
maxDeltaT       4e-05;


functions
{

readFields1
{
    // Mandatory entries (unmodifiable)
    type            readFields;
    libs            (fieldFunctionObjects);

    // Mandatory entries (runtime modifiable)
    fields      (U);
}

  //Debugging
minMax1
{
	libs            (fieldFunctionObjects);
	type            fieldMinMax;
	fields          (U.air p);
}

}

