/*--------------------------------*- C++ -*----------------------------------*\
| =========                 |                                                 |
| \\      /  F ield         | OpenFOAM: The Open Source CFD Toolbox           |
|  \\    /   O peration     | Version:  v2012                                 |
|   \\  /    A nd           | Website:  www.openfoam.com                      |
|    \\/     M anipulation  |                                                 |
\*---------------------------------------------------------------------------*/
FoamFile
{
    version     2.0;
    format      ascii;
    class       dictionary;
    object      fvSchemes;
}
// * * * * * * * * * * * * * * * * * * * * * * * * * * * * * * * * * * * * * //

ddtSchemes
{
    default         Euler; //1st order, backward 2nd order, crank-nicolson blends 1st to 2nd order
}

d2dt2Schemes
{
    default         Euler;
}

gradSchemes
{
    default         cellLimited Gauss linear 1;//Gauss linear;
}

divSchemes
{
    default         none;

    div(alphaPhi.air,U.air)    Gauss linearUpwindV unlimited;
    div(((alpha.air*nuEff.air)*dev2(T(grad(U.air))))) Gauss linear;

    div(phiGByA,kinematicCloud:alpha) Gauss linear;
}

laplacianSchemes
{
    default         Gauss linear corrected;
}

interpolationSchemes
{
    default         linear;
}

snGradSchemes
{
    default         corrected;
}


// ************************************************************************* //
