/*--------------------------------*- C++ -*----------------------------------*\
| =========                 |                                                 |
| \\      /  F ield         | OpenFOAM: The Open Source CFD Toolbox           |
|  \\    /   O peration     | Version:  v2012                                 |
|   \\  /    A nd           | Website:  www.openfoam.com                      |
|    \\/     M anipulation  |                                                 |
\*---------------------------------------------------------------------------*/
FoamFile
{
    version     2.0;
    format      ascii;
    class       vectorField;
    object      kinematicCloudPositions;
}
// * * * * * * * * * * * * * * * * * * * * * * * * * * * * * * * * * * * * * //

(
(-0.03942480 -1.59527004 -0.15154700)
(-0.27126801 -1.56923997 -0.15336700)
(-0.12904400 -1.56659997 -0.16052200)
(-0.00355886 -1.56681001 -0.16057900)
(-0.31669399 -1.55967999 -0.16059500)
(-0.35261700 -1.53957999 -0.16053900)
(-0.28433600 -1.54558003 -0.16057099)
(-0.20680299 -1.54496002 -0.16055900)
(-0.15048601 -1.54745996 -0.15873300)
(-0.08094640 -1.54611003 -0.16057400)
(-0.04005890 -1.54676998 -0.16055200)
(-0.32509401 -1.53296995 -0.16055800)
(-0.25238001 -1.52921999 -0.16055299)
(-0.44687399 -1.51033998 -0.16057000)
(-0.41891700 -1.51012003 -0.16055200)
(-0.39044300 -1.51956999 -0.16058899)
(-0.21850000 -1.51891994 -0.16052499)
(-0.14790900 -1.51741004 -0.16057400)
(-0.07900510 -1.51382995 -0.16058800)
(-0.03206120 -1.50822997 -0.16052601)
(-0.00397642 -1.51003003 -0.16052499)
(-0.50465101 -1.50136006 -0.15264200)
(-0.28525800 -1.50506997 -0.15309300)
(-0.54592800 -1.48525000 -0.16057400)
(-0.39724699 -1.49242997 -0.16055299)
(-0.15901300 -1.49258006 -0.15408801)
(-0.03782130 -1.47948003 -0.16055501)
(-0.33936799 -1.47457004 -0.16059899)
(-0.19837900 -1.47007000 -0.16052499)
(-0.55864298 -1.46035004 -0.16055299)
(-0.57705402 -1.43880999 -0.16052200)
(-0.52923298 -1.44980001 -0.16052701)
(-0.36828601 -1.44571996 -0.16057500)
(-0.12374400 -1.44237995 -0.15396599)
(-0.09707980 -1.44928002 -0.16055000)
(-0.04506060 -1.43687999 -0.15217599)
(-0.00180801 -1.44459999 -0.16054299)
(-0.48973900 -1.42550004 -0.15196100)
(-0.34323701 -1.43324995 -0.16057999)
(-0.07402920 -1.43340003 -0.16053399)
(-0.57985097 -1.41138995 -0.15553699)
(-0.55235600 -1.41659999 -0.15498900)
(-0.52548897 -1.42202997 -0.16057500)
(-0.26107499 -1.41929996 -0.15461600)
(-0.18712400 -1.40932000 -0.16054501)
(-0.09195860 -1.41171002 -0.15684500)
(-0.05489290 -1.41206002 -0.16057999)
(-0.00769391 -1.41657996 -0.16057301)
(-0.49548301 -1.39952004 -0.16055600)
(-0.33246201 -1.40724003 -0.16057600)
(-0.70743400 -1.38050997 -0.16056800)
(-0.46850500 -1.39198005 -0.16052200)
(-0.04359480 -1.37110996 -0.16054100)
(-0.75583202 -1.35177004 -0.16057800)
(-0.69625902 -1.33359003 -0.15404700)
(-0.66835302 -1.33378994 -0.15218399)
(-1.05324996 -1.06225002 -0.16058899)
(-1.18642998 -0.93612999 -0.15426300)
(-1.24188006 -0.82872897 -0.16053800)
(-1.21773005 -0.81453103 -0.16056900)
(-1.23881996 -0.79597300 -0.16057301)
(-1.18008006 -0.75638002 -0.15249200)
(-1.29434001 -0.72373998 -0.15614200)
(-1.23044002 -0.72903502 -0.16061901)
(-1.27666998 -0.70264697 -0.16056500)
(-1.21557999 -0.69030499 -0.15878500)
(-1.24239004 -0.68662101 -0.15143199)
(-1.28487003 -0.67575002 -0.16055401)
(-1.29749000 -0.64893597 -0.16055700)
(-1.28723001 -0.62234402 -0.16054700)
(-1.33313000 -0.61501300 -0.16055800)
(-1.23839998 -0.60922098 -0.16052200)
(-1.30771005 -0.60330302 -0.16059200)
(-1.28092003 -0.59507501 -0.16056800)
(-1.30323005 -0.57269597 -0.16055100)
(-1.35558999 -0.53844398 -0.16055501)
(-1.32086003 -0.54714203 -0.16057400)
(-1.33304000 -0.52193803 -0.16052601)
(-1.25712001 -0.52399498 -0.16055501)
(-1.35204995 -0.50001597 -0.16057099)
(-1.32457995 -0.49531701 -0.15814900)
(-1.26841998 -0.47907299 -0.16055501)
(-1.36868000 -0.47613001 -0.16058500)
(-1.34098005 -0.47277600 -0.16058600)
(-1.23799002 -0.47861800 -0.16053700)
(-1.31443000 -0.46417701 -0.16054501)
(-1.35676003 -0.44247901 -0.16056401)
(-1.33390999 -0.42474100 -0.15234600)
(-1.30637002 -0.43287501 -0.16054399)
(-1.37990999 -0.41789401 -0.15286900)
(-1.35487998 -0.40820399 -0.16057301)
(-1.30062997 -0.39763501 -0.15604199)
(-1.36187005 -0.38113499 -0.16057099)
(-1.32913005 -0.38907400 -0.16055600)
(-1.30539000 -0.37047401 -0.16060001)
(-1.27933002 -0.37961799 -0.15402301)
(-1.37002003 -0.35402501 -0.16053601)
(-1.28376997 -0.35255101 -0.16054900)
(-1.34250998 -0.34891200 -0.16054600)
(-1.25416005 -0.34617099 -0.16055800)
(-1.36004996 -0.32708901 -0.16052300)
(-1.32840002 -0.32474801 -0.16062400)
(-1.30351996 -0.33410800 -0.15200301)
(-1.30271006 -0.28866401 -0.16054501)
(-1.37307000 -0.27647299 -0.16055600)
(-1.33423996 -0.28151301 -0.16055600)
(-1.35326004 -0.25770700 -0.15442801)
(-1.28585005 -0.26631600 -0.16054600)
(-1.31682003 -0.23950700 -0.16064000)
(-1.37323999 -0.23910899 -0.16058099)
(-1.28887999 -0.23846900 -0.16054600)
(-1.37869000 -0.21166500 -0.16053000)
(-1.30589998 -0.21529000 -0.15191600)
(-1.35455000 -0.19751500 -0.16056900)
(-1.32659996 -0.19860700 -0.16056900)
(-1.37880003 -0.18365100 -0.16056600)
(-1.26438999 -0.19497000 -0.16052400)
(-1.32049000 -0.17238200 -0.15294901)
(-1.28965998 -0.18291400 -0.16053000)
(-1.24925005 -0.17142400 -0.16058300)
(-1.36845005 -0.15794700 -0.15686201)
(-1.26270998 -0.14683101 -0.16054501)
(-1.34956002 -0.13764200 -0.16054700)
(-1.31421006 -0.13864000 -0.16056700)
(-1.39435005 -0.12390300 -0.16052800)
(-1.33385003 -0.11448400 -0.16053399)
(-1.36440003 -0.11185600 -0.16058201)
(-1.25084996 -0.10502800 -0.16055600)
(-1.37546003 -0.08663040 -0.15607899)
(-1.30537999 -0.09098820 -0.16057800)
(-1.27726996 -0.09090860 -0.16053100)
(-1.24299002 -0.07817900 -0.16057700)
(-1.35669005 -0.06636480 -0.16053100)
(-1.29905999 -0.06374450 -0.16058700)
(-1.23677003 -0.05084750 -0.16059600)
(-1.31666005 -0.04201600 -0.16054399)
(-1.28663003 -0.03556060 -0.16052499)
(-1.26012003 -0.03830910 -0.15170100)
(-1.34403002 -0.00020320 -0.16057301)
(-1.28114998 -0.00930291 -0.15252000)
(-0.10079500 -1.59274006 -0.14585000)
(-0.18879400 -1.58030999 -0.14211001)
(-0.13742100 -1.58936000 -0.14282700)
(-0.07101350 -1.58530998 -0.14451800)
(-0.21929900 -1.56922996 -0.14524300)
(-0.15965700 -1.56886005 -0.14072900)
(-0.09160510 -1.56634998 -0.14454401)
(-0.04813130 -1.56927001 -0.14601099)
(-0.33772001 -1.55527997 -0.14278500)
(-0.24563999 -1.55999005 -0.14694799)
(-0.18233299 -1.55339003 -0.14607100)
(-0.02256900 -1.55821002 -0.14197899)
(-0.40087399 -1.53694999 -0.14135601)
(-0.37410799 -1.54488003 -0.14343700)
(-0.30537900 -1.54152000 -0.14265101)
(-0.26595500 -1.54214001 -0.13976599)
(-0.22775200 -1.53877997 -0.14310400)
(-0.12350900 -1.54410994 -0.14409100)
(-0.06427380 -1.54780996 -0.13819000)
(-0.42792100 -1.52888000 -0.14183900)
(-0.19556800 -1.52724004 -0.14209101)
(-0.16777000 -1.52953994 -0.14448000)
(-0.09971920 -1.52879000 -0.14917700)
(-0.04955290 -1.52517998 -0.14550300)
(-0.01379490 -1.53076005 -0.14449100)
(-0.46891201 -1.50844002 -0.14347900)
(-0.40281501 -1.50926995 -0.13771600)
(-0.34315500 -1.51681995 -0.14659899)
(-0.31365100 -1.51487994 -0.14254300)
(-0.11707600 -1.50776994 -0.14291400)
(-0.37134299 -1.50589001 -0.14552701)
(-0.25597101 -1.50636005 -0.14492300)
(-0.22917099 -1.49833000 -0.14482699)
(-0.20124599 -1.49995005 -0.14422201)
(-0.09106930 -1.49616003 -0.14265101)
(-0.05321910 -1.49744999 -0.14565700)
(-0.56034499 -1.47894001 -0.13748799)
(-0.52417898 -1.48382998 -0.14308500)
(-0.48997000 -1.48021996 -0.14168499)
(-0.44895199 -1.48719001 -0.14517100)
(-0.42002201 -1.48478997 -0.14621399)
(-0.34930500 -1.48988998 -0.13943900)
(-0.32176000 -1.48821998 -0.14377600)
(-0.18099500 -1.48090005 -0.14135000)
(-0.58314300 -1.46860003 -0.14997000)
(-0.46676901 -1.46585000 -0.14779800)
(-0.37643600 -1.47849000 -0.14813900)
(-0.29620200 -1.47737002 -0.14694899)
(-0.26843601 -1.47279000 -0.14143200)
(-0.23249200 -1.46888006 -0.14224599)
(-0.15692399 -1.46664000 -0.14021400)
(-0.12978600 -1.47016001 -0.14600000)
(-0.10198600 -1.47038996 -0.14286900)
(-0.01570680 -1.47869003 -0.14338300)
(-0.60958600 -1.45562994 -0.14547500)
(-0.51133102 -1.45905995 -0.14111100)
(-0.43905300 -1.46104002 -0.14507399)
(-0.38767800 -1.45360994 -0.14206800)
(-0.34270000 -1.45406997 -0.14187700)
(-0.28667000 -1.45158994 -0.14184600)
(-0.07675020 -1.45485997 -0.14186200)
(-0.05005230 -1.46318996 -0.14141400)
(-0.54770499 -1.44506001 -0.13987701)
(-0.41493800 -1.44745004 -0.14111400)
(-0.31523100 -1.44849002 -0.14154100)
(-0.25463799 -1.44807005 -0.14087500)
(-0.21874000 -1.44570005 -0.14972700)
(-0.18704399 -1.44980001 -0.14489700)
(-0.60775501 -1.42782998 -0.14294100)
(-0.44319999 -1.42648995 -0.14282800)
(-0.37566999 -1.42843997 -0.13989601)
(-0.29727799 -1.42625999 -0.14720400)
(-0.23621400 -1.42493999 -0.14301100)
(-0.14523500 -1.42965996 -0.14130400)
(-0.09338990 -1.43264997 -0.13837001)
(-0.01921360 -1.43359005 -0.14155200)
(-0.66767299 -1.41060996 -0.14902000)
(-0.63423598 -1.42042005 -0.14805999)
(-0.46752501 -1.41232002 -0.14122400)
(-0.41529101 -1.41636002 -0.14914700)
(-0.34941101 -1.41913998 -0.13729601)
(-0.31905299 -1.41225004 -0.13660000)
(-0.06584510 -1.42136002 -0.13664100)
(-0.70193398 -1.40658998 -0.14753200)
(-0.61526000 -1.40052998 -0.14276700)
(-0.56352103 -1.39868999 -0.13667500)
(-0.43594599 -1.39555001 -0.14344700)
(-0.39290899 -1.40051997 -0.14352401)
(-0.11359500 -1.39928997 -0.14190599)
(-0.02884720 -1.40514004 -0.14583500)
(-0.72550899 -1.39248002 -0.14221200)
(-0.68477100 -1.38472998 -0.14479899)
(-0.64522302 -1.39253998 -0.14445800)
(-0.58799398 -1.38724005 -0.14370599)
(-0.50349498 -1.38036001 -0.14184099)
(-0.31865299 -1.38242996 -0.14408800)
(-0.18201301 -1.39309001 -0.13835201)
(-0.07586580 -1.38577998 -0.14331900)
(-0.04844830 -1.38680005 -0.13790099)
(-0.00319541 -1.39382994 -0.14498401)
(-0.75377601 -1.37566996 -0.14617001)
(-0.66244900 -1.36804998 -0.14725600)
(-0.61192501 -1.37274003 -0.14300600)
(-0.53112799 -1.37641001 -0.14309900)
(-0.45445299 -1.37456000 -0.14341900)
(-0.40027800 -1.36784005 -0.14340700)
(-0.24822700 -1.36696005 -0.14372000)
(-0.01801270 -1.37047005 -0.14922100)
(-0.72389197 -1.36142004 -0.14854801)
(-0.68336499 -1.35223997 -0.13753800)
(-0.63226199 -1.35494995 -0.15025000)
(-0.56540102 -1.35671997 -0.13922501)
(-0.48029199 -1.36519003 -0.13827699)
(-0.42860699 -1.36475003 -0.14830200)
(-0.36888701 -1.35254002 -0.14275999)
(-0.18893300 -1.36602998 -0.13694900)
(-0.07751690 -1.35786998 -0.14466400)
(-0.80417901 -1.34095001 -0.14756300)
(-0.44972101 -1.34700000 -0.14378101)
(-0.15447800 -1.35204995 -0.13791400)
(-0.04630480 -1.35013998 -0.14219400)
(-0.77434897 -1.33703005 -0.14571500)
(-0.64083701 -1.32928002 -0.14314900)
(-0.59240401 -1.32879996 -0.14569500)
(-0.51151901 -1.33571994 -0.14357699)
(-0.21325500 -1.33419001 -0.13792200)
(-0.00432364 -1.33225000 -0.14396700)
(-0.82281500 -1.32045996 -0.14384900)
(-0.78478199 -1.30611002 -0.14219400)
(-0.73881900 -1.30584002 -0.14449500)
(-0.71118897 -1.30943000 -0.14330800)
(-0.87264502 -1.29020000 -0.14168300)
(-0.80338597 -1.28564000 -0.13732800)
(-0.67417997 -1.28959000 -0.13901000)
(-0.86432201 -1.26356995 -0.14075901)
(-0.81204897 -1.25788999 -0.14491500)
(-0.72004700 -1.26704001 -0.14130600)
(-0.90578300 -1.24134004 -0.14765200)
(-0.83910400 -1.25147998 -0.14153101)
(-0.77245897 -1.24914002 -0.13711300)
(-0.92049497 -1.21280003 -0.14657500)
(-0.88381702 -1.22498000 -0.14212200)
(-0.87680501 -1.19784999 -0.14273199)
(-0.92261201 -1.18531001 -0.14181300)
(-1.02658999 -1.14748001 -0.14142700)
(-0.99877697 -1.14870000 -0.14408900)
(-1.04469001 -1.12638998 -0.14454500)
(-1.00576997 -1.11327004 -0.14333200)
(-1.02576005 -1.09376001 -0.14491600)
(-1.08530998 -1.07840002 -0.14397500)
(-1.05430996 -1.08029997 -0.13925500)
(-1.03088999 -1.06517994 -0.14115000)
(-1.09775996 -1.03922999 -0.14348599)
(-1.13275003 -1.01586998 -0.14335300)
(-1.07236004 -1.02154005 -0.14507200)
(-1.10581994 -1.00885999 -0.14063200)
(-1.05157006 -1.00322998 -0.14077400)
(-1.12908995 -0.98822701 -0.14555500)
(-1.15619004 -0.98308903 -0.14108901)
(-1.10198998 -0.98141098 -0.14446600)
(-1.13410997 -0.94880801 -0.14282100)
(-1.10745001 -0.95485401 -0.13736001)
(-1.15837002 -0.93629801 -0.14897600)
(-1.11532998 -0.92467701 -0.14402500)
(-1.16986001 -0.90575898 -0.14746000)
(-1.14231002 -0.91350299 -0.15037499)
(-1.19694996 -0.89877099 -0.14728400)
(-1.11473000 -0.89415902 -0.14530100)
(-1.21590996 -0.87797898 -0.14265101)
(-1.16345000 -0.87857598 -0.14671700)
(-1.18932998 -0.86935800 -0.14155400)
(-1.21986997 -0.85008001 -0.14379700)
(-1.16272998 -0.85077798 -0.14403300)
(-1.13238001 -0.85135198 -0.14372800)
(-1.18909001 -0.84148300 -0.14392100)
(-1.25173998 -0.81810802 -0.13661399)
(-1.15657997 -0.81523597 -0.14152600)
(-1.26318002 -0.79475099 -0.14689600)
(-1.20137000 -0.79803801 -0.14364100)
(-1.16832995 -0.78999698 -0.14406399)
(-1.14049995 -0.79133201 -0.14148000)
(-1.24199998 -0.76642102 -0.14309800)
(-1.21148002 -0.77001399 -0.14595100)
(-1.26821995 -0.75734001 -0.14662600)
(-1.21106994 -0.74208701 -0.14526400)
(-1.17971003 -0.73267299 -0.13768700)
(-1.26941001 -0.72866702 -0.14441600)
(-1.24608004 -0.71321702 -0.14363900)
(-1.21740997 -0.71272701 -0.14215200)
(-1.18312001 -0.70596498 -0.14528400)
(-1.14177001 -0.71508002 -0.14259700)
(-1.15708995 -0.69231498 -0.14905900)
(-1.30789006 -0.68875998 -0.14588600)
(-1.26805997 -0.68537402 -0.14034000)
(-1.18964005 -0.67890197 -0.14308000)
(-1.32149005 -0.65397400 -0.14097100)
(-1.28705001 -0.66040999 -0.13728499)
(-1.24117005 -0.65183699 -0.14981399)
(-1.21429002 -0.65329099 -0.14170501)
(-1.15201998 -0.65870702 -0.14235500)
(-1.27040005 -0.64017600 -0.14710499)
(-1.19283998 -0.63602799 -0.14659899)
(-1.16644001 -0.63489902 -0.13761100)
(-1.30640996 -0.63045400 -0.14157400)
(-1.22784996 -0.62828702 -0.14287101)
(-1.29200006 -0.60682702 -0.13774601)
(-1.26247001 -0.60710001 -0.14330199)
(-1.16433001 -0.60885799 -0.14762200)
(-1.21698999 -0.60255599 -0.14373299)
(-1.32123995 -0.58573002 -0.14363900)
(-1.28375995 -0.57872403 -0.13806801)
(-1.24527001 -0.58517498 -0.14589100)
(-1.13955998 -0.57811302 -0.13731000)
(-1.34581995 -0.57246298 -0.14459001)
(-1.22434998 -0.56667602 -0.14442401)
(-1.26505995 -0.56022102 -0.14770401)
(-1.19733000 -0.55914998 -0.14365301)
(-1.33897996 -0.54587001 -0.13929600)
(-1.28855002 -0.54088300 -0.14414300)
(-1.24518001 -0.54136199 -0.14221901)
(-1.21735001 -0.53962302 -0.14392801)
(-1.35970998 -0.51867402 -0.14121000)
(-1.30849004 -0.52082503 -0.14721400)
(-1.22964001 -0.51453203 -0.14250401)
(-1.29729998 -0.49563000 -0.14257599)
(-1.27100003 -0.50454998 -0.14602600)
(-1.36543000 -0.49154201 -0.13755400)
(-1.25313997 -0.48470199 -0.13782801)
(-1.21364999 -0.48711199 -0.14366800)
(-1.16988003 -0.48569101 -0.13698000)
(-1.32569003 -0.47648299 -0.13747799)
(-1.29252994 -0.46812600 -0.14369500)
(-1.33633006 -0.45115799 -0.14351800)
(-1.26602995 -0.46001500 -0.14021000)
(-1.37574005 -0.44242501 -0.14006500)
(-1.28628004 -0.44093201 -0.14283299)
(-1.24035001 -0.44980699 -0.14421199)
(-1.26107001 -0.42971000 -0.14689800)
(-1.18515003 -0.42842400 -0.14365099)
(-1.31192005 -0.41550100 -0.13774300)
(-1.34186006 -0.39875901 -0.13762400)
(-1.26447999 -0.40193400 -0.14539900)
(-1.37397003 -0.39430201 -0.13905200)
(-1.24290001 -0.38424900 -0.14708699)
(-1.19597006 -0.38172400 -0.14436500)
(-1.34298003 -0.37058201 -0.14286201)
(-1.31722999 -0.37977499 -0.13701400)
(-1.26687002 -0.35898599 -0.13921601)
(-1.23433006 -0.35788500 -0.14320301)
(-1.32237995 -0.35174900 -0.14133200)
(-1.38580000 -0.32734999 -0.14954300)
(-1.27781999 -0.33335599 -0.14106600)
(-1.23915005 -0.32596901 -0.14835700)
(-1.37033999 -0.29914999 -0.14444800)
(-1.34318995 -0.30480200 -0.14788100)
(-1.31593001 -0.30777001 -0.14226800)
(-1.20598996 -0.30309701 -0.14825700)
(-1.39400995 -0.28437299 -0.14300200)
(-1.27767003 -0.29319400 -0.14893299)
(-1.23220003 -0.29331401 -0.14855400)
(-1.34975004 -0.27974999 -0.13737300)
(-1.21076000 -0.27582800 -0.14429100)
(-1.17487001 -0.27434701 -0.14567700)
(-1.39113998 -0.25723401 -0.14905700)
(-1.31379998 -0.26522899 -0.15007401)
(-1.24689996 -0.26517200 -0.14675599)
(-1.33621001 -0.24039499 -0.14057800)
(-1.26504004 -0.24386400 -0.14694700)
(-1.22315001 -0.25076401 -0.14358599)
(-1.39345002 -0.22991601 -0.14338200)
(-1.19625998 -0.22888300 -0.14534301)
(-1.35609996 -0.22179700 -0.14684400)
(-1.25413001 -0.21789099 -0.14815600)
(-1.39739001 -0.20176500 -0.14221600)
(-1.28369999 -0.20216300 -0.14111701)
(-1.23128998 -0.20227700 -0.14405701)
(-1.39328003 -0.17432900 -0.13853000)
(-1.36108994 -0.18067700 -0.13917500)
(-1.27162004 -0.16903301 -0.14399000)
(-1.21352005 -0.18069200 -0.14378500)
(-1.34440005 -0.15851900 -0.14267100)
(-1.29849994 -0.16527200 -0.13729200)
(-1.19193006 -0.16296101 -0.14493600)
(-1.39535999 -0.14664599 -0.14185500)
(-1.23938000 -0.15154900 -0.14359200)
(-1.37202001 -0.13099299 -0.14075600)
(-1.33174002 -0.13334399 -0.13942499)
(-1.29243004 -0.13860001 -0.14306200)
(-1.21735001 -0.13107900 -0.14351000)
(-1.27111995 -0.12080500 -0.14853100)
(-1.24433994 -0.12413800 -0.14122500)
(-1.39353001 -0.10337500 -0.14152101)
(-1.29631996 -0.11030100 -0.14249600)
(-1.20462000 -0.10619400 -0.14216900)
(-1.34843004 -0.09118770 -0.15059701)
(-1.32298994 -0.09857790 -0.14024600)
(-1.25976002 -0.08546280 -0.13939400)
(-1.23079002 -0.09628990 -0.14310201)
(-1.32942998 -0.07139270 -0.14196201)
(-1.29375994 -0.08057850 -0.13737699)
(-1.39075994 -0.06799830 -0.14202100)
(-1.27599001 -0.06043620 -0.14518100)
(-1.24924004 -0.05964080 -0.13720401)
(-1.22051001 -0.06892590 -0.14684799)
(-1.37303996 -0.04730130 -0.14819700)
(-1.35016000 -0.02979800 -0.14190499)
(-1.21553004 -0.04179480 -0.14214900)
(-1.18229997 -0.04036180 -0.14341199)
(-1.37417996 -0.01589910 -0.14515500)
(-1.30457997 -0.02645910 -0.14068100)
(-1.23635995 -0.02350480 -0.13831900)
(-1.20009005 -0.01846420 -0.14312500)
(-1.32854998 -0.01205060 -0.14052300)
(-1.25312996 -0.00342324 -0.14825700)
(-0.05182430 -1.59475994 -0.12648900)
(-0.01993000 -1.59606004 -0.13149300)
(-0.29203001 -1.56488001 -0.13516700)
(-0.26347101 -1.56734002 -0.12660600)
(-0.11661500 -1.57291996 -0.13395000)
(-0.20504899 -1.55060995 -0.13004200)
(-0.13881201 -1.55821002 -0.12543300)
(-0.10113900 -1.54637003 -0.12744300)
(-0.03377570 -1.53790998 -0.12624399)
(-0.45312399 -1.52138996 -0.12439300)
(-0.36407501 -1.52498996 -0.12648600)
(-0.32949099 -1.53286004 -0.12820999)
(-0.28602901 -1.52402997 -0.13253801)
(-0.24679799 -1.52640998 -0.12679300)
(-0.14182700 -1.52529001 -0.13448000)
(-0.07508550 -1.52219999 -0.13421801)
(-0.21768101 -1.51749003 -0.12796700)
(-0.10055700 -1.51865005 -0.12312700)
(-0.02953810 -1.51049995 -0.13274200)
(-0.49215701 -1.50621998 -0.12814300)
(-0.43185401 -1.50399005 -0.12966000)
(-0.30357000 -1.49650002 -0.12419400)
(-0.27589500 -1.49629998 -0.12811300)
(-0.16339099 -1.50658000 -0.12917601)
(-0.13913500 -1.49337995 -0.13354500)
(-0.06966010 -1.49530005 -0.12314400)
(-0.00372907 -1.50019002 -0.13004300)
(-0.46849501 -1.48727000 -0.12520599)
(-0.38510901 -1.49168003 -0.12511601)
(-0.24806701 -1.48641002 -0.12699100)
(-0.21494900 -1.48681998 -0.12366400)
(-0.10988200 -1.48924005 -0.12320100)
(-0.03750110 -1.48415005 -0.12673900)
(-0.40419000 -1.47100997 -0.12773600)
(-0.36160600 -1.46829998 -0.12673201)
(-0.31543401 -1.46998000 -0.12357700)
(-0.20734000 -1.46037996 -0.12880200)
(-0.02635800 -1.45694995 -0.12788901)
(-0.62677097 -1.44712996 -0.12512299)
(-0.58628100 -1.44682002 -0.13275400)
(-0.48494101 -1.44806004 -0.13619100)
(-0.45750001 -1.44661999 -0.12972599)
(-0.23172501 -1.44582999 -0.12495700)
(-0.12619200 -1.44981003 -0.12712100)
(-0.05688830 -1.44376004 -0.12251800)
(-0.56747502 -1.42618001 -0.13351700)
(-0.52541399 -1.42939997 -0.13363600)
(-0.42282799 -1.42702997 -0.12372500)
(-0.33038500 -1.43394005 -0.12309500)
(-0.27324799 -1.42936003 -0.13153800)
(-0.20204900 -1.42789996 -0.13609900)
(-0.11759600 -1.42321002 -0.12798500)
(-0.68486398 -1.41670001 -0.12780900)
(-0.65161699 -1.41565001 -0.12672400)
(-0.59043801 -1.41084003 -0.12902200)
(-0.39599901 -1.41927004 -0.12301200)
(-0.04422550 -1.41009998 -0.12297800)
(-0.52112198 -1.39453006 -0.12429700)
(-0.49744400 -1.40628004 -0.13328300)
(-0.37047401 -1.40507996 -0.12548700)
(-0.28298000 -1.40331995 -0.13457701)
(-0.24847899 -1.40130997 -0.13461900)
(-0.22058000 -1.40821004 -0.12693800)
(-0.08928870 -1.40611994 -0.12955700)
(-0.70372999 -1.39058006 -0.12474300)
(-0.66579503 -1.39157999 -0.12556900)
(-0.45958400 -1.39278996 -0.12286500)
(-0.41066700 -1.39001000 -0.12468300)
(-0.38365501 -1.38046002 -0.12485400)
(-0.34277999 -1.39216006 -0.13390800)
(-0.20569900 -1.38463998 -0.12453100)
(-0.14904100 -1.38199997 -0.13063000)
(-0.02296990 -1.38589001 -0.12639800)
(-0.63959801 -1.37061000 -0.12815399)
(-0.43472001 -1.37541997 -0.12320400)
(-0.30114901 -1.37014997 -0.12611400)
(-0.27506000 -1.36848998 -0.13599899)
(-0.12276400 -1.37260997 -0.13287599)
(-0.09572500 -1.36904001 -0.12657100)
(-0.77459800 -1.36207998 -0.13337401)
(-0.50669700 -1.35724998 -0.12641200)
(-0.22271100 -1.36392999 -0.13267100)
(-0.74401301 -1.34693003 -0.13571800)
(-0.70954299 -1.34477997 -0.13129500)
(-0.47318700 -1.33888996 -0.13096900)
(-0.41501099 -1.34415996 -0.13514701)
(-0.34250200 -1.34616005 -0.12812600)
(-0.31419501 -1.34559000 -0.12916701)
(-0.27371600 -1.34253001 -0.12567601)
(-0.24693500 -1.34091997 -0.13355900)
(-0.02098150 -1.35009003 -0.13026400)
(-0.79150897 -1.33226001 -0.12424300)
(-0.72861999 -1.32486999 -0.12682600)
(-0.53237098 -1.32401001 -0.12903900)
(-0.18851499 -1.33024001 -0.12551500)
(-0.75625199 -1.32239997 -0.13032600)
(-0.68673998 -1.32357001 -0.12970699)
(-0.61503702 -1.31769001 -0.13167700)
(-0.56413502 -1.32086003 -0.12751500)
(-0.41417301 -1.31652999 -0.13076800)
(-0.32319900 -1.31954002 -0.12438900)
(-0.69576502 -1.29778004 -0.12323700)
(-0.57702303 -1.29607999 -0.12592100)
(-0.38630700 -1.29837000 -0.12835200)
(-0.20018400 -1.30215001 -0.12305600)
(-0.17309099 -1.30698001 -0.12744799)
(-0.83845198 -1.28968000 -0.13201199)
(-0.76509100 -1.28750002 -0.13515399)
(-0.65370500 -1.27935004 -0.12290500)
(-0.62888801 -1.26831996 -0.13117200)
(-0.57212001 -1.26821005 -0.12998401)
(-0.89319801 -1.25718999 -0.12834001)
(-0.79400802 -1.26291001 -0.12417700)
(-0.93029302 -1.24132001 -0.13426800)
(-0.87028003 -1.24175000 -0.12437300)
(-0.90905797 -1.22583997 -0.12463900)
(-0.83334303 -1.22766995 -0.12665300)
(-0.95108002 -1.22306001 -0.13042100)
(-0.85866898 -1.21730006 -0.13255100)
(-0.97386998 -1.19621003 -0.13065501)
(-0.94590098 -1.19561005 -0.13018399)
(-0.87026799 -1.17469001 -0.12856799)
(-1.00985003 -1.16429996 -0.12374100)
(-0.98356098 -1.16887999 -0.13210900)
(-0.89762902 -1.16026998 -0.12828600)
(-0.95599198 -1.14561999 -0.12854700)
(-0.98588401 -1.13604999 -0.12286600)
(-1.04252994 -1.10545003 -0.12586400)
(-1.07342994 -1.09255004 -0.12299400)
(-1.00071001 -1.08667004 -0.13473600)
(-1.07287002 -1.05507004 -0.13502300)
(-1.12005997 -1.03363001 -0.12586799)
(-1.05493999 -1.02836001 -0.12428900)
(-1.14379001 -1.00032997 -0.12289500)
(-1.08649004 -0.99543798 -0.12552100)
(-1.12796998 -0.96934700 -0.12494200)
(-1.05464995 -0.96631402 -0.13088700)
(-1.15697002 -0.95026302 -0.12483200)
(-1.08085001 -0.95669198 -0.12911400)
(-1.17672002 -0.93079901 -0.12856600)
(-1.09695995 -0.93242800 -0.12441200)
(-1.19918001 -0.91465801 -0.12435300)
(-1.15610003 -0.91239101 -0.12407500)
(-1.12820005 -0.91175097 -0.12290800)
(-1.07637000 -0.91412699 -0.12911600)
(-1.14059997 -0.89001101 -0.13544200)
(-1.11912000 -0.87584400 -0.12463600)
(-1.14785004 -0.86515099 -0.12496600)
(-1.10887003 -0.85013098 -0.12863500)
(-1.24027002 -0.84158897 -0.12667300)
(-1.21019006 -0.82506198 -0.13581701)
(-1.12678003 -0.82861203 -0.12844500)
(-1.22774005 -0.80328900 -0.13601799)
(-1.18320000 -0.81642097 -0.13296500)
(-1.27190006 -0.77696198 -0.12708500)
(-1.24568999 -0.78595501 -0.12342100)
(-1.15555000 -0.77631801 -0.12328100)
(-1.11848998 -0.78542501 -0.12520801)
(-1.28524005 -0.74681401 -0.12709001)
(-1.17665994 -0.75798100 -0.12480900)
(-1.23960996 -0.73940903 -0.13629900)
(-1.20333004 -0.72727799 -0.12282200)
(-1.12063003 -0.73194200 -0.13553900)
(-1.29390001 -0.70889801 -0.13253599)
(-1.16305006 -0.70798498 -0.12592800)
(-1.20208001 -0.69658703 -0.12537199)
(-1.13126004 -0.69142097 -0.13202401)
(-1.09853995 -0.68411797 -0.13091899)
(-1.30870998 -0.67180002 -0.12364200)
(-1.22929001 -0.67394298 -0.13028800)
(-1.25975001 -0.66044497 -0.13079201)
(-1.17719996 -0.66110301 -0.12560700)
(-1.28473997 -0.63328302 -0.12412700)
(-1.25349998 -0.62874401 -0.12800001)
(-1.20849001 -0.63309300 -0.12328200)
(-1.14376998 -0.62716699 -0.12333100)
(-1.32769001 -0.61437899 -0.13315301)
(-1.18813002 -0.61478698 -0.12907700)
(-1.23922002 -0.60475498 -0.12691800)
(-1.34028995 -0.59114200 -0.12396900)
(-1.20044994 -0.58392298 -0.13103300)
(-1.17351997 -0.59097302 -0.12815700)
(-1.25969994 -0.57466900 -0.12433500)
(-1.31437004 -0.55960399 -0.13643400)
(-1.11012995 -0.55777401 -0.12814599)
(-1.26485002 -0.54690701 -0.12313000)
(-1.15392005 -0.54082102 -0.12688500)
(-1.32871997 -0.52245098 -0.12797700)
(-1.19497001 -0.52556199 -0.13493000)
(-1.13288999 -0.52232200 -0.12815399)
(-1.28807998 -0.51785100 -0.12832101)
(-1.25389004 -0.51842701 -0.12878500)
(-1.34060001 -0.49719900 -0.12601900)
(-1.21152997 -0.50665802 -0.12274400)
(-1.13803005 -0.49365601 -0.13114600)
(-1.27830994 -0.48407900 -0.12560999)
(-1.23079002 -0.47078401 -0.12844600)
(-1.19876003 -0.46558401 -0.13375600)
(-1.17319000 -0.46164599 -0.12309700)
(-1.35455000 -0.44768801 -0.12264700)
(-1.31184995 -0.44393501 -0.13211000)
(-1.21774995 -0.44576100 -0.12820500)
(-1.33408999 -0.42875800 -0.12466100)
(-1.23934996 -0.42595100 -0.12979700)
(-1.16144001 -0.43644500 -0.12585200)
(-1.35890996 -0.42073801 -0.13467200)
(-1.28340006 -0.41604599 -0.13044199)
(-1.21314001 -0.41841799 -0.12416200)
(-1.18674004 -0.40397599 -0.13016599)
(-1.29167998 -0.38935199 -0.13089100)
(-1.26514006 -0.38290101 -0.12493400)
(-1.22037005 -0.38191301 -0.13072300)
(-1.38714004 -0.35993901 -0.12979899)
(-1.29604006 -0.35996899 -0.13651200)
(-1.20188999 -0.36148000 -0.12595600)
(-1.36651003 -0.34197301 -0.13554899)
(-1.34103000 -0.33052400 -0.13637500)
(-1.25386000 -0.33644801 -0.12699600)
(-1.22056997 -0.33616501 -0.13016200)
(-1.36223996 -0.31672499 -0.12431000)
(-1.29753995 -0.32077900 -0.12577599)
(-1.26725996 -0.31028599 -0.12939601)
(-1.23679996 -0.30988801 -0.12562300)
(-1.20150006 -0.31658801 -0.12417100)
(-1.15496004 -0.31892800 -0.12663101)
(-1.39297998 -0.30895001 -0.12976401)
(-1.33317995 -0.29708901 -0.12294600)
(-1.17931998 -0.30045399 -0.13513701)
(-1.29666996 -0.29297301 -0.12840299)
(-1.25206995 -0.28685200 -0.12995400)
(-1.37450004 -0.26914200 -0.12998600)
(-1.27251995 -0.26874700 -0.13608401)
(-1.23076999 -0.26956499 -0.12432700)
(-1.32933998 -0.26375601 -0.12686899)
(-1.30165005 -0.26591101 -0.12362400)
(-1.12451994 -0.25678501 -0.12599500)
(-1.37029004 -0.24165700 -0.13292000)
(-1.30316997 -0.24112099 -0.13636900)
(-1.25041997 -0.24958199 -0.12379300)
(-1.18024004 -0.24919200 -0.13463500)
(-1.15240002 -0.25184599 -0.13201199)
(-1.23421001 -0.22780800 -0.13126300)
(-1.37129998 -0.21503299 -0.12440000)
(-1.30210996 -0.21601801 -0.12421800)
(-1.27267003 -0.22444700 -0.12828000)
(-1.34123003 -0.20039400 -0.13614200)
(-1.26012003 -0.19884500 -0.12643699)
(-1.19005001 -0.20248701 -0.13321000)
(-1.31403995 -0.19371200 -0.13607600)
(-1.32791996 -0.17223200 -0.12478700)
(-1.24369001 -0.17750099 -0.13388699)
(-1.16997004 -0.17397401 -0.13153701)
(-1.21499002 -0.15571800 -0.13051400)
(-1.26677001 -0.14372900 -0.13305700)
(-1.18206000 -0.14398000 -0.12688901)
(-1.15807998 -0.12886000 -0.13602000)
(-1.39445996 -0.12513299 -0.12404700)
(-1.31141996 -0.12343800 -0.12296100)
(-1.36670005 -0.10441700 -0.13372800)
(-1.34151995 -0.11202000 -0.12416100)
(-1.26154006 -0.10931300 -0.12490900)
(-1.17964995 -0.08460730 -0.12749000)
(-1.12571001 -0.09741710 -0.12885700)
(-1.35151994 -0.08305680 -0.12405000)
(-1.21447003 -0.08390530 -0.12406600)
(-1.35145998 -0.05660920 -0.13307300)
(-1.19884002 -0.06125760 -0.13098100)
(-1.17196000 -0.05782220 -0.12425500)
(-1.32688999 -0.04334770 -0.13453500)
(-1.30095994 -0.05369500 -0.13459700)
(-1.38650000 -0.03389590 -0.12765700)
(-1.27892005 -0.03305000 -0.13170099)
(-1.15661001 -0.03513410 -0.12994599)
(-1.25834000 -0.01482160 -0.12328600)
(-1.17707002 -0.00696851 -0.13210200)
(-0.11276400 -1.59228003 -0.11416100)
(-0.00273098 -1.59677005 -0.10943100)
(-0.20835000 -1.58053005 -0.12209300)
(-0.18137500 -1.58390999 -0.11539700)
(-0.15405799 -1.58734000 -0.12047200)
(-0.08765620 -1.58296001 -0.12218200)
(-0.03404100 -1.57370996 -0.12175800)
(-0.35465899 -1.55071998 -0.12108500)
(-0.32620999 -1.55770004 -0.11582900)
(-0.23309401 -1.56210005 -0.12203600)
(-0.16394900 -1.56207001 -0.11384500)
(-0.05220800 -1.55431998 -0.11308300)
(-0.38572699 -1.54132998 -0.11823400)
(-0.30414799 -1.53664005 -0.11514100)
(-0.27794501 -1.54647005 -0.11485300)
(-0.17974700 -1.54033005 -0.12148100)
(-0.15382700 -1.53592002 -0.11159100)
(-0.12429100 -1.53610003 -0.11553700)
(-0.07703310 -1.54153001 -0.11411100)
(-0.41477501 -1.53278995 -0.11743400)
(-0.34046400 -1.50836003 -0.12009900)
(-0.25833699 -1.50765002 -0.10956000)
(-0.18824901 -1.51388001 -0.11864300)
(-0.13526800 -1.51042998 -0.11169300)
(-0.05228430 -1.51839995 -0.11849100)
(-0.41082001 -1.50581002 -0.11112400)
(-0.02172590 -1.49857998 -0.10868500)
(-0.53905398 -1.48163998 -0.11954800)
(-0.50769901 -1.48425996 -0.12047300)
(-0.33965099 -1.48091996 -0.11477700)
(-0.18761601 -1.48635995 -0.11394700)
(-0.15854301 -1.48196006 -0.11688300)
(-0.58364302 -1.46833003 -0.11510500)
(-0.43745100 -1.47735000 -0.12173000)
(-0.28765699 -1.47200000 -0.12088000)
(-0.13179100 -1.47419000 -0.11460300)
(-0.08459940 -1.47174001 -0.12099100)
(-0.05770860 -1.47018003 -0.11338500)
(-0.00735015 -1.47590995 -0.11658700)
(-0.55658698 -1.45986998 -0.11741800)